/*--------------------------------*- C++ -*----------------------------------*\
| =========                 |                                                 |
| \\      /  F ield         | OpenFOAM: The Open Source CFD Toolbox           |
|  \\    /   O peration     | Version:  5.0                                   |
|   \\  /    A nd           | Web:      www.OpenFOAM.org                      |
|    \\/     M anipulation  |                                                 |
\*---------------------------------------------------------------------------*/
FoamFile
{
    version     2.0;
    format      ascii;
    class       polyBoundaryMesh;
    location    "constant/polyMesh";
    object      boundary;
}
// * * * * * * * * * * * * * * * * * * * * * * * * * * * * * * * * * * * * * //

3
(
    front
    {
        type            patch;
        nFaces          420;
        startFace       820;
    }
    back
    {
        type            patch;
        nFaces          420;
        startFace       1240;
    }
    wall
    {
        type            wall;
        inGroups        1(wall);
        nFaces          40;
        startFace       1660;
    }
)

// ************************************************************************* //
