FoamFile
{
  version 2.0;
  format ascii;
  class dictionary;
  location "system";
  object optiMeshDict;
}

// see optiMesh tutorials for a more complete example

nIters 10;

writeInterval 0; // 0 or negative to not write at all, otherwise increment runTime and save


boundaryRefinement {
  onlyOpposite true; // only ok for hex-meshes

  default {
    r0 1.1;
    nLayers 5;
    d0 0.01;
  }

  patches {
    wall1 {
      r0 1.1;
      nLayers 5;
      d0 0.001;
    }

    wall2 {
      r0 1.1;
      nLayers 5;
      d0 0.001;
    }

    // etc
  }
}


// evaluated in order (so same point can belong to different point sets)
constraints 
(
  {
    type planar;
    set  backPointSet;
  }

  {
    type planar;
    set  frontPointSet;
  }

  {
    type fixed;
    set  wallPointSet;
  }
);
