FoamFile
{
    version     2.0;
    format      ascii;
    class       dictionary;
    object      controlDict;
}

application     pimpleFoam;

libs ("libpositionedPointSet.so");

startFrom       startTime;

startTime       0;

stopAt          endTime;

endTime         20;

deltaT          1;

writeControl    timeStep;

writeInterval   10;

purgeWrite      0;

writeFormat     ascii;

writePrecision   8;

writeCompression off;

timeFormat      general;

timePrecision   6;

runTimeModifiable true;

// adjustTimeStep  yes;

// maxCo           1;

functions
{}
