FoamFile
{
  version 2.0;
  format ascii;
  class dictionary;
  object optiMeshDict;
}


nIters 100;

writeInterval 10; // 0 or negative to not write at all, otherwise increment runTime and save


direction {
  type pointLaplacian;
  weightType simple;

  //type orthogonality;
  //faceCentreType simple;
  //penalizationPower 0.5;
}


solver {
  type none;
  //type CG;
}


step {
  type relaxed;
  //type quadraticSearch;

  relaxation ( // a list of relaxation factors (for each initial time step)
    1.0 // 1.0 -> no relaxation
  );

  nMaxIters 10;
  tol 1e-7;
  initialSamples (
    0.01
    0.1
    0.2
    0.3
  );

  objective {
    type orthogonality;
    weightType simple;
    faceCentreType simple;
    penalizationPower 0.5;
  }
}

boundaryRefinement {
  onlyOpposite false;
  relaxation 0.5;

  default {
    r0 1.2;
    d0 0.03;
    nLayers 0;
  } 

  patches {
    wall {
      r0 1.2;
      d0 0.03;
      nLayers 3;
    }
  }
}

// collapsing is a special feature to turn bad hex cells into zero volume cells
collapseDegenerateHexCells false;
degenerateAngle 10;


// evaluated in order (so same point can belong to different point sets)
constraints 
(
  {
    type planar;
    set  backPointSet;
    n (0 0 1);
  }

  {
    type planar;
    set  frontPointSet;
    n (0 0 1);
  }

  {
    type cylindrical;
    set  wallPointSet;
    origin (0 0 0);
    axis (0 0 1);
  }

  /*{
    type fixed;
    set  wallPointSet;
  }*/
);
